ieee/IEEE30.PWF
TITU
IEEE 30 Bus Test Case - Winter 1961                                             
DBAR
(Num)OETGb(   nome   )Gl( V)( A)( Pg)( Qg)( Qn)( Qm)(Bc  )( Pl)( Ql)( Sh)Are(Vf)
    1 L2 AGlen-Lyn-132  1060  0.260.2-16.1-999999999                       11000 
    2 L1 AClaytor--132  1043 -5.  40.  50. -40.  50.       21.7 12.7       11000 
    3 L  AKumis----132  1021 -7.                            2.4  1.2       11000 
    4 L  AHancock -132  1012 -9.                            7.6  1.6       11000 
    5 L1 AFieldale-132  1010-14.   0.  37. -40.  40.       94.2  19.       11000 
    6 L  ARoanoke--132  1010-11.                                           11000 
    7 L  ABlaine---132  1002-13.                           22.8 10.9       11000 
    8 L1 AReusens--132  1010-12.   0. 37.3 -10.  40.        30.  30.       11000 
    9 L  ZRoanoke--1.0  1051-14.                                           11000 
   10 L  TRoanoke---33  1045-15.                            5.8   2.  19.  11000 
   11 L1 SRoanoke---11  1082-14.   0. 16.2  -6.  24.                       11000 
   12 L  THancock---33  1057-15.                           11.2  7.5       11000 
   13 L1 SHancock---11  1071-15.   0. 10.6  -6.  24.                       11000 
   14 L  TBarra14---33  1042-16.                            6.2  1.6       11000 
   15 L  TBarra15---33  1038-16.                            8.2  2.5       11000 
   16 L  TBarra16---33  1045-15.                            3.5  1.8       11000 
   17 L  TBarra17---33  1040-16.                             9.  5.8       11000 
   18 L  TBarra18---33  1028-16.                            3.2   .9       11000 
   19 L  TBarra19---33  1026-17.                            9.5  3.4       11000 
   20 L  TBarra20---33  1030-16.                            2.2   .7       11000 
   21 L  TBarra21---33  1033-16.                           17.5 11.2       11000 
   22 L  TBarra22---33  1033-16.                                           11000 
   23 L  TBarra23---33  1027-16.                            3.2  1.6       11000 
   24 L  TBarra24---33  1021-16.                            8.7  6.7  4.3  11000 
   25 L  TBarra25---33  1017-16.                                           11000 
   26 L  TBarra26---33  1000-16.                            3.5  2.3       11000 
   27 L  TCloverdle-33  1023-15.                                           11000 
   28 L  ACloverdle132  1007-11.                                           11000 
   29 L  TBarra29---33  1003-17.                            2.4   .9       11000 
   30 L  TBarra30---33   992-17.                           10.6  1.9       11000 
99999
DLIN
(De )d O d(Pa )NcEP ( R% )( X% )(Mvar)(Tap)(Tmn)(Tmx)(Phs)(Bc  )(Cn)(Ce)Ns
    1         2 1     1.92  5.75  5.28                                    
    1         3 1     4.52 16.52  4.08                                    
    2         4 1      5.7 17.37  3.68                                    
    2         5 1     4.72 19.83  4.18                                    
    2         6 1     5.81 17.63  3.74                                    
    3         4 1     1.32  3.79   .84                                    
    4         6 1     1.19  4.14    .9                                    
    4        12 1           25.6       .932                               
    5         7 1      4.6  11.6  2.04                                    
    6         7 1     2.67   8.2   1.7                                    
    6         8 1      1.2   4.2    .9                                    
    6         9 1           20.8       .978                               
    6        10 1           55.6       .969                               
    6        28 1     1.69  5.99   1.3                                    
    8        28 1     6.36   20.  4.28                                    
    9        10 1            11.                                          
    9        11 1           20.8                                          
   10        17 1     3.24  8.45                                          
   10        20 1     9.36  20.9                                          
   10        21 1     3.48  7.49                                          
   10        22 1     7.27 14.99                                          
   12        13 1            14.                                          
   12        14 1    12.31 25.59                                          
   12        15 1     6.62 13.04                                          
   12        16 1     9.45 19.87                                          
   14        15 1     22.1 19.97                                          
   15        18 1    10.73 21.85                                          
   15        23 1      10.  20.2                                          
   16        17 1     5.24 19.23                                          
   18        19 1     6.39 12.92                                          
   19        20 1      3.4   6.8                                          
   21        22 1     1.16  2.36                                          
   22        24 1     11.5  17.9                                          
   23        24 1     13.2   27.                                          
   24        25 1    18.85 32.92                                          
   25        26 1    25.44   38.                                          
   25        27 1    10.93 20.87                                          
   27        29 1    21.98 41.53                                          
   27        30 1    32.02 60.27                                          
   28        27 1           39.6       .968                               
   29        30 1    23.99 45.33                                          
99999
DGBT
(G ( kV)
 A  132.
 T   33.
 S   11.
 Z    1.
99999
FIM
